Version 4
SHEET 1 2944 1664
WIRE -768 -304 -912 -304
WIRE -592 -304 -688 -304
WIRE -272 -176 -272 -224
WIRE -672 -160 -672 -192
WIRE -1024 -144 -1168 -144
WIRE -912 -144 -912 -304
WIRE -912 -144 -960 -144
WIRE -896 -144 -912 -144
WIRE -704 -144 -832 -144
WIRE -1168 -128 -1168 -144
WIRE -592 -128 -592 -304
WIRE -592 -128 -640 -128
WIRE -480 -128 -592 -128
WIRE -704 -112 -736 -112
WIRE -592 -96 -592 -128
WIRE -272 -96 -272 -112
WIRE -208 -96 -272 -96
WIRE -832 -64 -832 -144
WIRE -672 -64 -672 -96
WIRE -272 -64 -272 -96
WIRE -1168 0 -1168 -48
WIRE -736 0 -736 -112
WIRE -592 0 -592 -16
WIRE -592 0 -736 0
WIRE -592 16 -592 0
WIRE -272 64 -272 0
WIRE -272 96 -272 64
WIRE -832 112 -832 16
WIRE -592 128 -592 96
FLAG -208 -96 0
FLAG -272 -224 VCC
FLAG -272 64 VEE
FLAG -1168 0 0
FLAG -832 112 0
FLAG -592 128 0
FLAG -672 -192 VEE
FLAG -672 -64 VCC
FLAG -480 -128 Vo3
SYMBOL Misc\\cell -272 -176 R0
SYMATTR InstName Vcc1
SYMATTR Value 15
SYMBOL Misc\\cell -272 -64 R0
SYMATTR InstName Vee1
SYMATTR Value 15
SYMBOL voltage -1168 -144 R0
WINDOW 123 24 44 Left 2
WINDOW 39 0 0 Left 0
SYMATTR Value2 AC 1
SYMATTR InstName Vin1
SYMATTR Value ""
SYMBOL cap -832 -160 R90
WINDOW 0 0 32 VBottom 2
WINDOW 3 32 32 VTop 2
SYMATTR InstName C5
SYMATTR Value 10µ
SYMBOL cap -960 -160 R90
WINDOW 0 0 32 VBottom 2
WINDOW 3 32 32 VTop 2
SYMATTR InstName C4
SYMATTR Value 10µ
SYMBOL res -608 -112 R0
SYMATTR InstName R14
SYMATTR Value 82k
SYMBOL res -608 0 R0
SYMATTR InstName R15
SYMATTR Value 10k
SYMBOL res -672 -320 R90
WINDOW 0 0 56 VBottom 2
WINDOW 3 32 56 VTop 2
SYMATTR InstName R26
SYMATTR Value 910k
SYMBOL Opamps\\opamp2 -672 -64 M180
WINDOW 0 16 29 Left 2
WINDOW 3 -84 112 Left 2
SYMATTR InstName U4
SYMATTR Value TL084
SYMBOL res -848 -80 R0
SYMATTR InstName R12
SYMATTR Value 93.7k
TEXT -1232 200 Left 2 !.ac dec 10 0.01 10k
TEXT -1240 248 Left 2 !.include C:\\Program Files\\lib\\sub\\TL084.lib
