Version 4
SHEET 1 2188 680
WIRE -1152 -944 -1152 -992
WIRE -608 -880 -816 -880
WIRE 48 -880 -528 -880
WIRE -1152 -848 -1152 -880
WIRE -1024 -848 -1152 -848
WIRE -1152 -816 -1152 -848
WIRE -816 -800 -816 -880
WIRE 816 -752 752 -752
WIRE 1168 -752 880 -752
WIRE -720 -736 -768 -736
WIRE -608 -736 -656 -736
WIRE -480 -736 -528 -736
WIRE 272 -720 272 -768
WIRE -1152 -688 -1152 -752
WIRE -816 -688 -816 -720
WIRE 48 -688 48 -880
WIRE 208 -688 48 -688
WIRE -1152 -672 -1152 -688
WIRE 208 -656 48 -656
WIRE -768 -640 -768 -736
WIRE -608 -640 -768 -640
WIRE -480 -640 -480 -736
WIRE -480 -640 -528 -640
WIRE -352 -640 -480 -640
WIRE -272 -640 -352 -640
WIRE -32 -640 -192 -640
WIRE 48 -640 48 -656
WIRE 48 -640 -32 -640
WIRE 1056 -608 1056 -640
WIRE 448 -592 400 -592
WIRE 624 -592 448 -592
WIRE 752 -592 752 -752
WIRE 752 -592 704 -592
WIRE 800 -592 752 -592
WIRE 816 -592 800 -592
WIRE 912 -592 880 -592
WIRE 1024 -592 912 -592
WIRE 1168 -576 1168 -752
WIRE 1168 -576 1088 -576
WIRE 1280 -576 1168 -576
WIRE 1360 -576 1280 -576
WIRE 1504 -576 1360 -576
WIRE -560 -560 -560 -576
WIRE 1024 -560 976 -560
WIRE -560 -544 -560 -560
WIRE -352 -544 -352 -640
WIRE -272 -544 -352 -544
WIRE -32 -544 -32 -560
WIRE -32 -544 -192 -544
WIRE 48 -544 -32 -544
WIRE -480 -528 -480 -640
WIRE -480 -528 -528 -528
WIRE 48 -528 48 -544
WIRE 208 -528 48 -528
WIRE 912 -528 912 -592
WIRE -768 -512 -768 -640
WIRE -592 -512 -768 -512
WIRE 1056 -512 1056 -544
WIRE -480 -496 -528 -496
WIRE 208 -496 64 -496
WIRE -768 -464 -768 -512
WIRE -480 -464 -480 -496
WIRE 976 -464 976 -560
WIRE 1280 -464 1280 -496
WIRE 1280 -464 976 -464
WIRE -560 -448 -560 -480
WIRE 1280 -448 1280 -464
WIRE 336 -432 336 -512
WIRE 912 -416 912 -464
WIRE 272 -384 272 -464
WIRE -768 -352 -768 -384
WIRE -608 -304 -656 -304
WIRE 64 -304 64 -496
WIRE 64 -304 -528 -304
WIRE 1280 -304 1280 -368
WIRE -656 -256 -656 -304
WIRE 1504 -208 1504 -576
WIRE 1504 -208 -416 -208
WIRE 912 -128 672 -128
WIRE 1184 -128 992 -128
WIRE 0 -112 -144 -112
WIRE 176 -112 80 -112
WIRE 896 -16 880 -16
WIRE 1120 -16 976 -16
WIRE 96 32 96 0
WIRE 672 32 672 -128
WIRE 768 32 672 32
WIRE 880 32 880 -16
WIRE 880 32 848 32
WIRE 976 32 880 32
WIRE -416 48 -416 -208
WIRE -256 48 -416 48
WIRE -144 48 -144 -112
WIRE -144 48 -192 48
WIRE -128 48 -144 48
WIRE 64 48 -64 48
WIRE 176 64 176 -112
WIRE 176 64 128 64
WIRE 272 64 176 64
WIRE 288 64 272 64
WIRE 1056 64 1056 48
WIRE 64 80 32 80
WIRE 976 80 976 32
WIRE 1024 80 976 80
WIRE 176 96 176 64
WIRE 272 96 272 64
WIRE 672 96 672 32
WIRE 672 96 272 96
WIRE 704 96 672 96
WIRE 864 96 768 96
WIRE 992 96 864 96
WIRE 1120 96 1120 -16
WIRE 1120 96 1088 96
WIRE 992 112 992 96
WIRE 1024 112 992 112
WIRE -64 128 -64 48
WIRE 96 128 96 96
WIRE 864 128 864 96
WIRE 1184 128 1184 -128
WIRE 1200 128 1184 128
WIRE 1120 160 1120 96
WIRE 1184 160 1184 128
WIRE 1056 176 1056 128
WIRE 1056 176 1040 176
WIRE 32 192 32 80
WIRE 176 192 176 176
WIRE 176 192 32 192
WIRE 176 208 176 192
WIRE 864 224 864 208
WIRE -64 304 -64 208
WIRE 176 320 176 288
FLAG 912 -416 0
FLAG 1280 -304 0
FLAG 1360 -576 vout2
FLAG 1056 -640 vee
FLAG 1056 -512 vcc
FLAG -1024 -848 0
FLAG -1152 -992 vcc
FLAG -1152 -688 vee
FLAG -64 304 0
FLAG 176 320 0
FLAG 96 0 VEE
FLAG 96 128 VCC
FLAG 288 64 Vo3
FLAG 864 224 0
FLAG 1056 48 VCC
FLAG 1040 176 VEE
FLAG 1200 128 Vout
FLAG -768 -352 0
FLAG -656 -256 0
FLAG 272 -768 vcc
FLAG 272 -384 vee
FLAG -560 -560 VCC
FLAG -560 -448 VEE
FLAG -480 -464 0
FLAG -816 -688 0
FLAG 336 -432 0
FLAG 448 -592 Vo1
SYMBOL OpAmps\\opamp2 1056 -512 M180
SYMATTR InstName U1
SYMATTR Value TL084
SYMBOL res 1264 -592 R0
SYMATTR InstName R8
SYMATTR Value 120k
SYMBOL res 1264 -464 R0
SYMATTR InstName R9
SYMATTR Value 15K
SYMBOL res 896 -608 R90
WINDOW 0 0 56 VBottom 2
WINDOW 3 32 56 VTop 2
SYMATTR InstName R11
SYMATTR Value 11K
SYMBOL res 720 -608 R90
WINDOW 0 0 56 VBottom 2
WINDOW 3 32 56 VTop 2
SYMATTR InstName R10
SYMATTR Value 11K
SYMBOL cap 896 -528 R0
SYMATTR InstName C3
SYMATTR Value 100n
SYMBOL cap 880 -768 R90
WINDOW 0 0 32 VBottom 2
WINDOW 3 32 32 VTop 2
SYMATTR InstName C2
SYMATTR Value 10n
SYMBOL Misc\\cell -1152 -944 R0
SYMATTR InstName vcc
SYMATTR Value 15
SYMBOL Misc\\cell -1152 -816 R0
SYMATTR InstName vee
SYMATTR Value 15
SYMBOL cap -64 32 R90
WINDOW 0 0 32 VBottom 2
WINDOW 3 32 32 VTop 2
SYMATTR InstName C1
SYMATTR Value 10µ
SYMBOL cap -192 32 R90
WINDOW 0 0 32 VBottom 2
WINDOW 3 32 32 VTop 2
SYMATTR InstName C4
SYMATTR Value 10µ
SYMBOL res 160 80 R0
SYMATTR InstName R1
SYMATTR Value 82k
SYMBOL res 160 192 R0
SYMATTR InstName R2
SYMATTR Value 10k
SYMBOL res 96 -128 R90
WINDOW 0 0 56 VBottom 2
WINDOW 3 32 56 VTop 2
SYMATTR InstName R3
SYMATTR Value 910k
SYMBOL Opamps\\opamp2 96 128 M180
WINDOW 0 16 29 Left 2
WINDOW 3 -84 112 Left 2
SYMATTR InstName U2
SYMATTR Value TL084
SYMBOL res -80 112 R0
SYMATTR InstName R4
SYMATTR Value 93.7k
SYMBOL res 880 224 R180
WINDOW 0 36 76 Left 2
WINDOW 3 36 40 Left 2
SYMATTR InstName R5
SYMATTR Value 68k
SYMBOL res 992 -32 R90
WINDOW 0 0 56 VBottom 2
WINDOW 3 32 56 VTop 2
SYMATTR InstName R6
SYMATTR Value 10k
SYMBOL cap 768 80 R90
WINDOW 0 0 32 VBottom 2
WINDOW 3 32 32 VTop 2
SYMATTR InstName C5
SYMATTR Value 47n
SYMBOL cap 1184 144 R90
WINDOW 0 0 32 VBottom 2
WINDOW 3 32 32 VTop 2
SYMATTR InstName C6
SYMATTR Value 47n
SYMBOL res 864 16 R90
WINDOW 0 0 56 VBottom 2
WINDOW 3 32 56 VTop 2
SYMATTR InstName R7
SYMATTR Value 10k
SYMBOL res 1008 -144 R90
WINDOW 0 0 56 VBottom 2
WINDOW 3 32 56 VTop 2
SYMATTR InstName R12
SYMATTR Value 68k
SYMBOL OpAmps\\opamp2 1056 32 R0
SYMATTR InstName U3
SYMATTR Value TL084
SYMBOL res -176 -656 R90
WINDOW 0 0 56 VBottom 2
WINDOW 3 32 56 VTop 2
SYMATTR InstName R13
SYMATTR Value 22k
SYMBOL res -176 -560 R90
WINDOW 0 0 56 VBottom 2
WINDOW 3 32 56 VTop 2
SYMATTR InstName R14
SYMATTR Value 22k
SYMBOL res -16 -544 R180
WINDOW 0 36 76 Left 2
WINDOW 3 36 40 Left 2
SYMATTR InstName Rg1
SYMATTR Value 5.6k
SYMBOL res -512 -656 R90
WINDOW 0 0 56 VBottom 2
WINDOW 3 32 56 VTop 2
SYMATTR InstName R15
SYMATTR Value 1Meg
SYMBOL res -512 -896 R90
WINDOW 0 0 56 VBottom 2
WINDOW 3 32 56 VTop 2
SYMATTR InstName R16
SYMATTR Value 220k
SYMBOL res -512 -320 R90
WINDOW 0 0 56 VBottom 2
WINDOW 3 32 56 VTop 2
SYMATTR InstName R17
SYMATTR Value 220k
SYMBOL res -512 -752 R90
WINDOW 0 0 56 VBottom 2
WINDOW 3 32 56 VTop 2
SYMATTR InstName R18
SYMATTR Value 10K
SYMBOL cap -656 -752 R90
WINDOW 0 0 32 VBottom 2
WINDOW 3 32 32 VTop 2
SYMATTR InstName C7
SYMATTR Value 100n
SYMBOL res -784 -480 R0
SYMATTR InstName R19
SYMATTR Value 220k
SYMBOL OpAmps\\opamp2 -560 -576 M0
SYMATTR InstName U4
SYMATTR Value TL084
SYMBOL AD620 256 -592 R0
SYMATTR InstName U5
SYMATTR Value AD620
SYMBOL voltage -816 -816 R0
WINDOW 123 24 124 Left 2
WINDOW 39 0 0 Left 0
SYMATTR Value2 AC 1
SYMATTR InstName V2
SYMATTR Value ""
TEXT -1056 480 Left 2 !.ac dec 10  0.01 10K
TEXT -1120 520 Left 2 !.include C:\\Program Files\\lib\\sub\\TL084.lib
TEXT -1112 568 Left 2 !.lib D:\\UNI\\uni\\8eighth sem\\az elec2\\my reports\\project\\sim\\ad620.cir
